WEBVTT

1
00:00:00.000 --> 00:00:03.000
Understanding the spatial and temporal distribution of pumping

2
00:00:04.000 --> 00:00:07.000
Accurate pumping records are often unavailable where

3
00:00:08.000 --> 00:00:11.000
Natural and anthropogenic forcings including pumping, precipitation,

4
00:00:12.000 --> 00:00:15.000
MODFLOW groundwater-head observations containing the designed forcings

5
00:00:16.000 --> 00:00:19.000
Verified numerical aquifer response for subsequent pumping recovery

6
00:00:20.000 --> 00:00:23.000
A regular spatiotemporal head field

7
00:00:24.000 --> 00:00:27.000
First-differenced stationary high-frequency head changes

8
00:00:28.000 --> 00:00:31.000
Orthogonal spatial patterns with temporal expansion coefficients

9
00:00:32.000 --> 00:00:35.000
Source-stated rescaled EOF representation prepared for Varimax

10
00:00:36.000 --> 00:00:39.000
Varimax-rotated localized spatial patterns

11
00:00:40.000 --> 00:00:43.000
Pumping-like EOF modes and their EC time series

12
00:00:44.000 --> 00:00:47.000
Intrinsic mode functions and a residual trend

13
00:00:48.000 --> 00:00:51.000
Complex analytic signal for the IMF

14
00:00:52.000 --> 00:00:55.000
Time-varying IMF amplitude series

15
00:00:56.000 --> 00:00:59.000
Time-varying IMF frequency series

16
00:01:00.000 --> 00:01:03.000
Frequency-amplitude product series

17
00:01:04.000 --> 00:01:07.000
Outlier times associated with non-pumping contamination

18
00:01:08.000 --> 00:01:11.000
Bounded gaps in the pumping-like EC

19
00:01:12.000 --> 00:01:15.000
Reconstructed pumping-like EC for the current iteration

20
00:01:16.000 --> 00:01:19.000
A denoised EC when both criteria are satisfied

21
00:01:20.000 --> 00:01:23.000
Pumping-on and pumping-off timestamps

22
00:01:24.000 --> 00:01:27.000
Actual pumping-associated head variation over each operating interval

23
00:01:28.000 --> 00:01:31.000
Mode-specific space-time pumping-rate field

24
00:01:32.000 --> 00:01:35.000
Total spatiotemporal pumping-rate distribution

25
00:01:36.000 --> 00:01:39.000
Per-well and total designed-versus-estimated pumping amounts

26
00:01:40.000 --> 00:01:43.000
Table 1 absolute and relative errors including 6.6 percent total

27
00:01:44.000 --> 00:01:47.000
The EOF-HHT framework can recover localized pumping patterns and

